@<TRIPOS>MOLECULE
****
29 30 1 0 0
SMALL
USER_CHARGES


@<TRIPOS>ATOM
      1 C           0.5940    0.8169    0.3701 C.3       1     ****    0.0000
      2 C           1.4329    1.7257   -0.5353 C.3       1     ****    0.0000
      3 C           2.3919    0.8698   -1.3707 C.3       1     ****    0.0000
      4 C           2.2299   -0.6061   -0.9774 C.3       1     ****    0.0000
      5 O           1.4812    0.1060    1.2503 O.3       1     ****    0.0000
      6 C           2.4249   -0.7124    0.5404 C.3       1     ****    0.0000
      7 C           0.7914   -1.0384   -1.2986 C.3       1     ****    0.0000
      8 C          -0.1872   -0.2058   -0.4624 C.3       1     ****    0.0000
      9 C          -0.3912    1.6729    1.1551 C.3       1     ****    0.0000
     10 C           2.2047   -2.1624    0.9508 C.3       1     ****    0.0000
     11 C           3.8356   -0.2578    0.8908 C.3       1     ****    0.0000
     12 H           0.7597    2.2969   -1.2131 H         1     ****    0.0000
     13 H           2.0185    2.4353    0.0911 H         1     ****    0.0000
     14 H           3.4398    1.1922   -1.1792 H         1     ****    0.0000
     15 H           2.1580    0.9953   -2.4516 H         1     ****    0.0000
     16 H           2.9628   -1.2413   -1.5233 H         1     ****    0.0000
     17 H           0.6644   -2.1167   -1.0541 H         1     ****    0.0000
     18 H           0.5869   -0.8780   -2.3808 H         1     ****    0.0000
     19 H          -0.8919    0.3277   -1.1388 H         1     ****    0.0000
     20 H          -0.7599   -0.8769    0.2161 H         1     ****    0.0000
     21 H          -0.2004    1.5539    2.2452 H         1     ****    0.0000
     22 H          -0.2623    2.7412    0.8709 H         1     ****    0.0000
     23 H          -1.4306    1.3492    0.9231 H         1     ****    0.0000
     24 H           3.1331   -2.5617    1.4169 H         1     ****    0.0000
     25 H           1.3690   -2.2171    1.6839 H         1     ****    0.0000
     26 H           1.9511   -2.7678    0.0519 H         1     ****    0.0000
     27 H           3.9718    0.8027    0.5818 H         1     ****    0.0000
     28 H           3.9913   -0.3465    1.9893 H         1     ****    0.0000
     29 H           4.5744   -0.8972    0.3577 H         1     ****    0.0000
@<TRIPOS>BOND
     1     1     2     1
     2     1     5     1
     3     1     8     1
     4     1     9     1
     5     2     3     1
     6     2    12     1
     7     2    13     1
     8     3     4     1
     9     3    14     1
    10     3    15     1
    11     4     6     1
    12     4     7     1
    13     4    16     1
    14     5     6     1
    15     6    10     1
    16     6    11     1
    17     7     8     1
    18     7    17     1
    19     7    18     1
    20     8    19     1
    21     8    20     1
    22     9    21     1
    23     9    22     1
    24     9    23     1
    25    10    24     1
    26    10    25     1
    27    10    26     1
    28    11    27     1
    29    11    28     1
    30    11    29     1
