@<TRIPOS>MOLECULE
****
34 33 1 0 0
SMALL
USER_CHARGES


@<TRIPOS>ATOM
      1 C          -4.3458   -3.2660    0.0559 C.2       1     ****    0.0000
      2 C          -5.6526   -4.0205    0.0559 C.3       1     ****    0.0000
      3 O          -3.2996   -3.8700    0.0559 O.2       1     ****    0.0000
      4 O          -4.3458   -1.9280    0.0559 O.3       1     ****    0.0000
      5 C          -3.0275   -1.4508    0.0559 C.3       1     ****    0.0000
      6 C          -3.0382    0.0722    0.0559 C.3       1     ****    0.0000
      7 C          -3.7472    0.5670    1.2780 C.2       1     ****    0.0000
      8 C          -3.8782    1.8807    1.4890 C.2       1     ****    0.0000
      9 C          -4.3096   -0.4092    2.2639 C.3       1     ****    0.0000
     10 C          -1.6056    0.5892    0.0569 C.3       1     ****    0.0000
     11 C          -1.3743    1.4225   -1.1651 C.2       1     ****    0.0000
     12 C          -0.1789    1.9833   -1.3753 C.2       1     ****    0.0000
     13 C           0.0524    2.8166   -2.5972 C.3       1     ****    0.0000
     14 C           0.9281    1.7779   -0.3888 C.3       1     ****    0.0000
     15 H          -5.4498   -5.1149    0.0559 H         1     ****    0.0000
     16 H          -6.2355   -3.7518    0.9652 H         1     ****    0.0000
     17 H          -6.2361   -3.7515   -0.8529 H         1     ****    0.0000
     18 H          -2.5008   -1.8175   -0.8533 H         1     ****    0.0000
     19 H          -2.5002   -1.8179    0.9648 H         1     ****    0.0000
     20 H          -3.5654    0.4394   -0.8529 H         1     ****    0.0000
     21 H          -4.3992    2.2443    2.3870 H         1     ****    0.0000
     22 H          -3.4650    2.5980    0.7646 H         1     ****    0.0000
     23 H          -4.1029   -1.4469    1.9184 H         1     ****    0.0000
     24 H          -3.8343   -0.2479    3.2573 H         1     ****    0.0000
     25 H          -5.4091   -0.2587    2.3488 H         1     ****    0.0000
     26 H          -1.4360    1.2091    0.9656 H         1     ****    0.0000
     27 H          -0.9006   -0.2721    0.0573 H         1     ****    0.0000
     28 H          -2.1878    1.5734   -1.8900 H         1     ****    0.0000
     29 H          -0.8797    2.8524   -3.2044 H         1     ****    0.0000
     30 H           0.3364    3.8489   -2.2933 H         1     ****    0.0000
     31 H           0.8720    2.3682   -3.2022 H         1     ****    0.0000
     32 H           0.5677    1.1357    0.4457 H         1     ****    0.0000
     33 H           1.7870    1.2818   -0.8937 H         1     ****    0.0000
     34 H           1.2526    2.7631    0.0149 H         1     ****    0.0000
@<TRIPOS>BOND
     1     1     2     1
     2     1     3     2
     3     1     4     1
     4     2    15     1
     5     2    16     1
     6     2    17     1
     7     4     5     1
     8     5     6     1
     9     5    18     1
    10     5    19     1
    11     6     7     1
    12     6    10     1
    13     6    20     1
    14     7     8     2
    15     7     9     1
    16     8    21     1
    17     8    22     1
    18     9    23     1
    19     9    24     1
    20     9    25     1
    21    10    11     1
    22    10    26     1
    23    10    27     1
    24    11    12     2
    25    11    28     1
    26    12    13     1
    27    12    14     1
    28    13    29     1
    29    13    30     1
    30    13    31     1
    31    14    32     1
    32    14    33     1
    33    14    34     1
